21
I get a bang out of this!
O     2.8261   -2.0309   -0.2863
O    -3.1712    1.4323   -0.2863
O     1.3894   -2.9621    0.5964
O    -3.2595   -0.2772    0.5963
O     1.1179    3.8739   -0.0258
O     2.7927    2.9050   -0.0258
N     1.7184   -1.9585    0.0986
N    -2.5551    0.5091    0.0987
N     1.6271    2.8177   -0.0177
C    -0.4853   -0.8408   -0.0308
C     0.9463   -0.8509    0.0239
C    -1.2096    0.3942    0.0238
C     0.9536    1.6504   -0.0019
C     1.6104    0.4022    0.0169
C    -0.4566    1.5953    0.0169
C    -1.2285   -2.1278   -0.1789
H     2.6334    0.4156    0.0370
H    -0.9561    2.4885    0.0370
H    -1.4620   -2.5322    0.8082
H    -0.6797   -2.8769   -0.7502
H    -2.1517   -2.0269   -0.7502
